PV_Scenarios/PV_combined/scenario_54_combined/PV_combined90per.txt
New PVSystem.PV_1 phases=1 bus1=G2000UI6400_N283679_sec_1.3 kV=0.24 kVA=3.12 irradiance=1 Pmpp=2.6 %cutin=0.1 %cutout=0.1
New PVSystem.PV_2 phases=1 bus1=G2000UJ3600_N283731_sec_3.2 kV=0.24 kVA=12.4702 irradiance=1 Pmpp=10.3919 %cutin=0.1 %cutout=0.1
New PVSystem.PV_3 phases=1 bus1=G2000VI6200_N283684_sec_4.2 kV=0.24 kVA=2.8119 irradiance=1 Pmpp=2.3433 %cutin=0.1 %cutout=0.1
New PVSystem.PV_4 phases=1 bus1=G2000WL9300_N283779_sec_1.2 kV=0.24 kVA=1.08 irradiance=1 Pmpp=0.9 %cutin=0.1 %cutout=0.1
New PVSystem.PV_5 phases=1 bus1=G2000WN3300_N283848_sec_2.2 kV=0.24 kVA=4.2568 irradiance=1 Pmpp=3.5474 %cutin=0.1 %cutout=0.1
New PVSystem.PV_6 phases=1 bus1=G2000XL0800_N283812_sec_1.1 kV=0.24 kVA=3.24 irradiance=1 Pmpp=2.7 %cutin=0.1 %cutout=0.1
New PVSystem.PV_7 phases=1 bus1=G2001RJ9700_N274469_sec_4.2 kV=0.24 kVA=12.48 irradiance=1 Pmpp=10.4 %cutin=0.1 %cutout=0.1
New PVSystem.PV_8 phases=1 bus1=G2001SB6900_N274277_sec_1.3 kV=0.24 kVA=6 irradiance=1 Pmpp=5 %cutin=0.1 %cutout=0.1
New PVSystem.PV_9 phases=1 bus1=G2001SI2800_N274447_sec_6.1 kV=0.24 kVA=5.64 irradiance=1 Pmpp=4.7 %cutin=0.1 %cutout=0.1
New PVSystem.PV_10 phases=1 bus1=G2001TL8200_N274509_sec_1.2 kV=0.24 kVA=7.56 irradiance=1 Pmpp=6.3 %cutin=0.1 %cutout=0.1
New PVSystem.PV_11 phases=1 bus1=G2001WB3100_N283924_sec_4.3 kV=0.24 kVA=5.04 irradiance=1 Pmpp=4.2 %cutin=0.1 %cutout=0.1
New PVSystem.PV_12 phases=1 bus1=G2001WB8800_N283948_sec_7.3 kV=0.24 kVA=6.6 irradiance=1 Pmpp=5.5 %cutin=0.1 %cutout=0.1
New PVSystem.PV_13 phases=1 bus1=G2001WB9000_N283924_sec_5.3 kV=0.24 kVA=3.12 irradiance=1 Pmpp=2.6 %cutin=0.1 %cutout=0.1
New PVSystem.PV_14 phases=1 bus1=G2001WE0200_N284057_sec_1.3 kV=0.24 kVA=1.08 irradiance=1 Pmpp=0.9 %cutin=0.1 %cutout=0.1
New PVSystem.PV_15 phases=1 bus1=G2001WE0200_N284057_sec_7.3 kV=0.24 kVA=4.44 irradiance=1 Pmpp=3.7 %cutin=0.1 %cutout=0.1
New PVSystem.PV_16 phases=1 bus1=G2001WE7200_N1300454_sec_1.1 kV=0.24 kVA=0.12 irradiance=1 Pmpp=0.1 %cutin=0.1 %cutout=0.1
New PVSystem.PV_17 phases=1 bus1=G2100AH8200_N283618_sec_5.3 kV=0.24 kVA=2.52 irradiance=1 Pmpp=2.1 %cutin=0.1 %cutout=0.1
New PVSystem.PV_18 phases=1 bus1=G2100AL1800_N283798_sec_1.1 kV=0.24 kVA=7.32 irradiance=1 Pmpp=6.1 %cutin=0.1 %cutout=0.1
New PVSystem.PV_19 phases=1 bus1=G2100AL7200_N283775_sec_1.1 kV=0.24 kVA=6 irradiance=1 Pmpp=5 %cutin=0.1 %cutout=0.1
New PVSystem.PV_20 phases=1 bus1=G2100BE8900_N283564_sec_7.3 kV=0.24 kVA=3.24 irradiance=1 Pmpp=2.7 %cutin=0.1 %cutout=0.1
New PVSystem.PV_21 phases=1 bus1=G2100CN4000_N283847_sec_9.3 kV=0.24 kVA=1.68 irradiance=1 Pmpp=1.4 %cutin=0.1 %cutout=0.1
New PVSystem.PV_22 phases=1 bus1=G2100DG3700_N283614_sec_2.3 kV=0.24 kVA=2.16 irradiance=1 Pmpp=1.8 %cutin=0.1 %cutout=0.1
New PVSystem.PV_23 phases=1 bus1=G2100DL9800_N283744_sec_8.2 kV=0.24 kVA=3.5689 irradiance=1 Pmpp=2.9741 %cutin=0.1 %cutout=0.1
New PVSystem.PV_24 phases=1 bus1=G2100DN3000_N283838_sec_12.3 kV=0.24 kVA=2.16 irradiance=1 Pmpp=1.8 %cutin=0.1 %cutout=0.1
New PVSystem.PV_25 phases=1 bus1=G2100DN3000_N283838_sec_17.3 kV=0.24 kVA=3 irradiance=1 Pmpp=2.5 %cutin=0.1 %cutout=0.1
New PVSystem.PV_26 phases=1 bus1=G2100DN4800_N283861_sec_56.3 kV=0.24 kVA=1.68 irradiance=1 Pmpp=1.4 %cutin=0.1 %cutout=0.1
New PVSystem.PV_27 phases=1 bus1=G2100EG8500_N292275_sec_5.3 kV=0.24 kVA=2.88 irradiance=1 Pmpp=2.4 %cutin=0.1 %cutout=0.1
New PVSystem.PV_28 phases=3 conn = delta bus1=G2100EG8700_N292270_sec_1.1.2.3 kV=0.48 kVA=30 irradiance=1 Pmpp=25 %cutin=0.1 %cutout=0.1
New PVSystem.PV_29 phases=1 bus1=G2100EO1300_N292510_sec_2.3 kV=0.24 kVA=1.08 irradiance=1 Pmpp=0.9 %cutin=0.1 %cutout=0.1
New PVSystem.PV_30 phases=3 conn = delta bus1=G2100FE2600_N292234_sec_12.1.2.3 kV=0.48 kVA=4.56 irradiance=1 Pmpp=3.8 %cutin=0.1 %cutout=0.1
New PVSystem.PV_31 phases=1 bus1=G2100FO1600_N292502_sec_5.3 kV=0.24 kVA=2.28 irradiance=1 Pmpp=1.9 %cutin=0.1 %cutout=0.1
New PVSystem.PV_32 phases=1 bus1=G2100GM9700_N292423_sec_26.3 kV=0.24 kVA=4.92 irradiance=1 Pmpp=4.1 %cutin=0.1 %cutout=0.1
New PVSystem.PV_33 phases=1 bus1=G2100GN7300_N292464_sec_7.1 kV=0.24 kVA=10.92 irradiance=1 Pmpp=9.1 %cutin=0.1 %cutout=0.1
New PVSystem.PV_34 phases=3 conn = delta bus1=G2100GO7200_N292517_sec_6.1.2.3 kV=0.48 kVA=24.12 irradiance=1 Pmpp=20.1 %cutin=0.1 %cutout=0.1
New PVSystem.PV_35 phases=1 bus1=G2100HM3200_N292420_sec_15.3 kV=0.24 kVA=2.04 irradiance=1 Pmpp=1.7 %cutin=0.1 %cutout=0.1
New PVSystem.PV_36 phases=1 bus1=G2100HN5600_N292453_sec_2.3 kV=0.24 kVA=2.28 irradiance=1 Pmpp=1.9 %cutin=0.1 %cutout=0.1
New PVSystem.PV_37 phases=1 bus1=G2100IN2700_N292475_sec_28.3 kV=0.24 kVA=3.8671 irradiance=1 Pmpp=3.2226 %cutin=0.1 %cutout=0.1
New PVSystem.PV_38 phases=1 bus1=G2100IN7700_N292438_sec_3.3 kV=0.24 kVA=1.92 irradiance=1 Pmpp=1.6 %cutin=0.1 %cutout=0.1
New PVSystem.PV_39 phases=1 bus1=G2100IN7700_N292438_sec_35.3 kV=0.24 kVA=2.88 irradiance=1 Pmpp=2.4 %cutin=0.1 %cutout=0.1
New PVSystem.PV_40 phases=1 bus1=G2100NJ7400_N300463_sec_1.1 kV=0.24 kVA=10.0436 irradiance=1 Pmpp=8.3697 %cutin=0.1 %cutout=0.1
New PVSystem.PV_41 phases=1 bus1=G2100NM7500_N300513_sec_1.1 kV=0.24 kVA=4.44 irradiance=1 Pmpp=3.7 %cutin=0.1 %cutout=0.1
New PVSystem.PV_42 phases=1 bus1=G2100OO7600_N300586_sec_3.1 kV=0.24 kVA=5.16 irradiance=1 Pmpp=4.3 %cutin=0.1 %cutout=0.1
New PVSystem.PV_43 phases=1 bus1=G2100PN0800_N300563_sec_3.1 kV=0.24 kVA=4.6435 irradiance=1 Pmpp=3.8696 %cutin=0.1 %cutout=0.1
New PVSystem.PV_44 phases=1 bus1=G2100QM7500_N300522_sec_3.3 kV=0.24 kVA=2.28 irradiance=1 Pmpp=1.9 %cutin=0.1 %cutout=0.1
New PVSystem.PV_45 phases=1 bus1=G2100RN0300_N300550_sec_4.3 kV=0.24 kVA=3.24 irradiance=1 Pmpp=2.7 %cutin=0.1 %cutout=0.1
New PVSystem.PV_46 phases=1 bus1=G2100SM1100_N312351_sec_1.3 kV=0.24 kVA=0 irradiance=1 Pmpp=0 %cutin=0.1 %cutout=0.1
New PVSystem.PV_47 phases=1 bus1=G2101AI2000_N284180_sec_1.3 kV=0.24 kVA=0.36 irradiance=1 Pmpp=0.3 %cutin=0.1 %cutout=0.1
New PVSystem.PV_48 phases=1 bus1=G2101BC6900_N283995_sec_4.2 kV=0.24 kVA=11.04 irradiance=1 Pmpp=9.2 %cutin=0.1 %cutout=0.1
New PVSystem.PV_49 phases=1 bus1=G2101BC8800_N283993_sec_2.2 kV=0.24 kVA=9.3024 irradiance=1 Pmpp=7.752 %cutin=0.1 %cutout=0.1
New PVSystem.PV_50 phases=1 bus1=G2101BN4800_N284308_sec_1.1 kV=0.24 kVA=2.04 irradiance=1 Pmpp=1.7 %cutin=0.1 %cutout=0.1
New PVSystem.PV_51 phases=1 bus1=G2101CI1000_N284174_sec_3.3 kV=0.24 kVA=11.4876 irradiance=1 Pmpp=9.573 %cutin=0.1 %cutout=0.1
New PVSystem.PV_52 phases=1 bus1=G2101EE3400_N284041_sec_2.2 kV=0.24 kVA=11.16 irradiance=1 Pmpp=9.3 %cutin=0.1 %cutout=0.1
New PVSystem.PV_53 phases=1 bus1=G2101EL2800_N284246_sec_5.1 kV=0.24 kVA=7.8 irradiance=1 Pmpp=6.5 %cutin=0.1 %cutout=0.1
New PVSystem.PV_54 phases=1 bus1=G2101FC9500_N292618_sec_13.1 kV=0.24 kVA=1.68 irradiance=1 Pmpp=1.4 %cutin=0.1 %cutout=0.1
New PVSystem.PV_55 phases=1 bus1=G2101FM7500_N292827_sec_3.2 kV=0.24 kVA=13.8 irradiance=1 Pmpp=11.5 %cutin=0.1 %cutout=0.1
New PVSystem.PV_56 phases=3 conn = delta bus1=G2101GA5600_N292545_sec_1.1.2.3 kV=0.48 kVA=242.1324 irradiance=1 Pmpp=201.777 %cutin=0.1 %cutout=0.1
New PVSystem.PV_57 phases=1 bus1=G2101GC3200_N292623_sec_21.1 kV=0.24 kVA=8.0184 irradiance=1 Pmpp=6.682 %cutin=0.1 %cutout=0.1
New PVSystem.PV_58 phases=1 bus1=G2101GC9700_N292633_sec_15.1 kV=0.24 kVA=4.44 irradiance=1 Pmpp=3.7 %cutin=0.1 %cutout=0.1
New PVSystem.PV_59 phases=1 bus1=G2101GD1300_N292637_sec_11.1 kV=0.24 kVA=2.16 irradiance=1 Pmpp=1.8 %cutin=0.1 %cutout=0.1
New PVSystem.PV_60 phases=1 bus1=G2101GD1300_N292637_sec_12.1 kV=0.24 kVA=4.08 irradiance=1 Pmpp=3.4 %cutin=0.1 %cutout=0.1
New PVSystem.PV_61 phases=1 bus1=G2101GD6200_N292642_sec_11.1 kV=0.24 kVA=3 irradiance=1 Pmpp=2.5 %cutin=0.1 %cutout=0.1
New PVSystem.PV_62 phases=1 bus1=G2101GD9500_N292651_sec_8.1 kV=0.24 kVA=4.08 irradiance=1 Pmpp=3.4 %cutin=0.1 %cutout=0.1
New PVSystem.PV_63 phases=1 bus1=G2101GM7400_N292866_sec_2.3 kV=0.24 kVA=9.24 irradiance=1 Pmpp=7.7 %cutin=0.1 %cutout=0.1
New PVSystem.PV_64 phases=1 bus1=G2101HB3500_N292585_sec_1.1 kV=0.24 kVA=5.04 irradiance=1 Pmpp=4.2 %cutin=0.1 %cutout=0.1
New PVSystem.PV_65 phases=1 bus1=G2101HB3800_N292598_sec_11.1 kV=0.24 kVA=3.6 irradiance=1 Pmpp=3 %cutin=0.1 %cutout=0.1
New PVSystem.PV_66 phases=1 bus1=G2101HD2500_N292652_sec_9.1 kV=0.24 kVA=2.28 irradiance=1 Pmpp=1.9 %cutin=0.1 %cutout=0.1
New PVSystem.PV_67 phases=1 bus1=G2101JE7500_N300801_sec_3.1 kV=0.24 kVA=7.92 irradiance=1 Pmpp=6.6 %cutin=0.1 %cutout=0.1
New PVSystem.PV_68 phases=1 bus1=G2101JF1200_N292702_sec_2.1 kV=0.24 kVA=3.48 irradiance=1 Pmpp=2.9 %cutin=0.1 %cutout=0.1
New PVSystem.PV_69 phases=1 bus1=G2101JJ0800_N292819_sec_1.3 kV=0.24 kVA=9.7837 irradiance=1 Pmpp=8.1531 %cutin=0.1 %cutout=0.1
New PVSystem.PV_70 phases=1 bus1=G2101OC6200_N300746_sec_1.3 kV=0.24 kVA=4.1503 irradiance=1 Pmpp=3.4586 %cutin=0.1 %cutout=0.1
New PVSystem.PV_71 phases=1 bus1=G2101PB2500_N300719_sec_2.3 kV=0.24 kVA=3.36 irradiance=1 Pmpp=2.8 %cutin=0.1 %cutout=0.1
New PVSystem.PV_72 phases=1 bus1=G2101PB7500_N300717_sec_5.3 kV=0.24 kVA=7.56 irradiance=1 Pmpp=6.3 %cutin=0.1 %cutout=0.1
New PVSystem.PV_73 phases=1 bus1=G2101QC6000_N300736_sec_2.3 kV=0.24 kVA=12 irradiance=1 Pmpp=10 %cutin=0.1 %cutout=0.1
New PVSystem.PV_74 phases=1 bus1=G2101SA6800_N312536_sec_6.2 kV=0.24 kVA=9.84 irradiance=1 Pmpp=8.2 %cutin=0.1 %cutout=0.1
New PVSystem.PV_75 phases=1 bus1=G2101TA3200_N312486_sec_1.2 kV=0.24 kVA=6.36 irradiance=1 Pmpp=5.3 %cutin=0.1 %cutout=0.1
New PVSystem.PV_76 phases=1 bus1=G2102AA7100_N284314_sec_1.1 kV=0.24 kVA=5.8463 irradiance=1 Pmpp=4.8719 %cutin=0.1 %cutout=0.1
New PVSystem.PV_77 phases=1 bus1=G2102AG6500_N284433_sec_3.1 kV=0.24 kVA=11.1651 irradiance=1 Pmpp=9.3042 %cutin=0.1 %cutout=0.1
New PVSystem.PV_78 phases=1 bus1=G2102BC7600_N284348_sec_1.1 kV=0.24 kVA=9.6 irradiance=1 Pmpp=8 %cutin=0.1 %cutout=0.1
New PVSystem.PV_79 phases=1 bus1=G2000TN4400_N283873_sec_1.3 kV=0.24 kVA=1.92 irradiance=1 Pmpp=1.6 %cutin=0.1 %cutout=0.1
New PVSystem.PV_80 phases=1 bus1=G2000UK1100_N283753_sec_3.3 kV=0.24 kVA=3.24 irradiance=1 Pmpp=2.7 %cutin=0.1 %cutout=0.1
New PVSystem.PV_81 phases=1 bus1=G2000UL3200_N283772_sec_4.2 kV=0.24 kVA=4.08 irradiance=1 Pmpp=3.4 %cutin=0.1 %cutout=0.1
New PVSystem.PV_82 phases=1 bus1=G2000VI6200_N283684_sec_6.2 kV=0.24 kVA=9.2047 irradiance=1 Pmpp=7.6706 %cutin=0.1 %cutout=0.1
New PVSystem.PV_83 phases=1 bus1=G2000VI6200_N283684_sec_11.2 kV=0.24 kVA=11.28 irradiance=1 Pmpp=9.4 %cutin=0.1 %cutout=0.1
New PVSystem.PV_84 phases=1 bus1=G2000XK5800_N283764_sec_1.3 kV=0.24 kVA=1.92 irradiance=1 Pmpp=1.6 %cutin=0.1 %cutout=0.1
New PVSystem.PV_85 phases=1 bus1=G2000XK5800_N283764_sec_2.3 kV=0.24 kVA=3.36 irradiance=1 Pmpp=2.8 %cutin=0.1 %cutout=0.1
New PVSystem.PV_86 phases=1 bus1=G2000XL9500_N283792_sec_2.1 kV=0.24 kVA=4.2 irradiance=1 Pmpp=3.5 %cutin=0.1 %cutout=0.1
New PVSystem.PV_87 phases=1 bus1=G2001QO2100_N274563_sec_3.2 kV=0.24 kVA=9.9183 irradiance=1 Pmpp=8.2653 %cutin=0.1 %cutout=0.1
New PVSystem.PV_88 phases=1 bus1=G2001SL6300_N274540_sec_3.2 kV=0.24 kVA=4.7175 irradiance=1 Pmpp=3.9313 %cutin=0.1 %cutout=0.1
New PVSystem.PV_89 phases=1 bus1=G2001TA6400_N274237_sec_3.3 kV=0.24 kVA=0.48 irradiance=1 Pmpp=0.4 %cutin=0.1 %cutout=0.1
New PVSystem.PV_90 phases=1 bus1=G2001TE3800_N274352_sec_2.3 kV=0.24 kVA=5.4 irradiance=1 Pmpp=4.5 %cutin=0.1 %cutout=0.1
New PVSystem.PV_91 phases=1 bus1=G2001UD7700_N284028_sec_9.3 kV=0.24 kVA=0 irradiance=1 Pmpp=0 %cutin=0.1 %cutout=0.1
New PVSystem.PV_92 phases=1 bus1=G2001UJ6300_N284204_sec_1.2 kV=0.24 kVA=5.76 irradiance=1 Pmpp=4.8 %cutin=0.1 %cutout=0.1
New PVSystem.PV_93 phases=1 bus1=G2001VA3800_N283914_sec_2.3 kV=0.24 kVA=3.96 irradiance=1 Pmpp=3.3 %cutin=0.1 %cutout=0.1
New PVSystem.PV_94 phases=1 bus1=G2001VC8200_N283967_sec_2.3 kV=0.24 kVA=3.12 irradiance=1 Pmpp=2.6 %cutin=0.1 %cutout=0.1
New PVSystem.PV_95 phases=1 bus1=G2001VF4000_N284076_sec_3.3 kV=0.24 kVA=3.6994 irradiance=1 Pmpp=3.0829 %cutin=0.1 %cutout=0.1
New PVSystem.PV_96 phases=1 bus1=G2001VF9300_N284100_sec_1.3 kV=0.24 kVA=6.6 irradiance=1 Pmpp=5.5 %cutin=0.1 %cutout=0.1
New PVSystem.PV_97 phases=1 bus1=G2001WA2400_N283917_sec_1.3 kV=0.24 kVA=4.44 irradiance=1 Pmpp=3.7 %cutin=0.1 %cutout=0.1
New PVSystem.PV_98 phases=1 bus1=G2001XC7500_N283961_sec_1.3 kV=0.24 kVA=4.44 irradiance=1 Pmpp=3.7 %cutin=0.1 %cutout=0.1
New PVSystem.PV_99 phases=1 bus1=G2001XE9200_N284049_sec_3.3 kV=0.24 kVA=5.88 irradiance=1 Pmpp=4.9 %cutin=0.1 %cutout=0.1
New PVSystem.PV_100 phases=1 bus1=G2001XE9500_N284003_sec_1.3 kV=0.24 kVA=3.24 irradiance=1 Pmpp=2.7 %cutin=0.1 %cutout=0.1
New PVSystem.PV_101 phases=1 bus1=G2100AE4800_N283558_sec_3.3 kV=0.24 kVA=3.12 irradiance=1 Pmpp=2.6 %cutin=0.1 %cutout=0.1
New PVSystem.PV_102 phases=1 bus1=G2100BH3900_N283665_sec_9.3 kV=0.24 kVA=2.76 irradiance=1 Pmpp=2.3 %cutin=0.1 %cutout=0.1
New PVSystem.PV_103 phases=1 bus1=G2100BJ0700_N283696_sec_3.2 kV=0.24 kVA=6.6 irradiance=1 Pmpp=5.5 %cutin=0.1 %cutout=0.1
New PVSystem.PV_104 phases=1 bus1=G2100BJ1200_N283713_sec_2.1 kV=0.24 kVA=0 irradiance=1 Pmpp=0 %cutin=0.1 %cutout=0.1
New PVSystem.PV_105 phases=1 bus1=G2100CG0300_N283590_sec_17.3 kV=0.24 kVA=4.92 irradiance=1 Pmpp=4.1 %cutin=0.1 %cutout=0.1
New PVSystem.PV_106 phases=1 bus1=G2100CH1800_N1385522_sec_5.3 kV=0.24 kVA=3.12 irradiance=1 Pmpp=2.6 %cutin=0.1 %cutout=0.1
New PVSystem.PV_107 phases=1 bus1=G2100DG3700_N283614_sec_10.3 kV=0.24 kVA=3.96 irradiance=1 Pmpp=3.3 %cutin=0.1 %cutout=0.1
New PVSystem.PV_108 phases=1 bus1=G2100DJ0100_N283721_sec_1.2 kV=0.24 kVA=5.4 irradiance=1 Pmpp=4.5 %cutin=0.1 %cutout=0.1
New PVSystem.PV_109 phases=1 bus1=G2100DN3000_N283838_sec_16.3 kV=0.24 kVA=1.68 irradiance=1 Pmpp=1.4 %cutin=0.1 %cutout=0.1
New PVSystem.PV_110 phases=1 bus1=G2100EK1100_N292334_sec_6.2 kV=0.24 kVA=2.76 irradiance=1 Pmpp=2.3 %cutin=0.1 %cutout=0.1
New PVSystem.PV_111 phases=1 bus1=G2100EN2200_N292457_sec_27.3 kV=0.24 kVA=1.92 irradiance=1 Pmpp=1.6 %cutin=0.1 %cutout=0.1
New PVSystem.PV_112 phases=3 conn = delta bus1=G2100FE2600_N292234_sec_13.1.2.3 kV=0.48 kVA=12.12 irradiance=1 Pmpp=10.1 %cutin=0.1 %cutout=0.1
New PVSystem.PV_113 phases=3 conn = delta bus1=G2100FE2600_N292234_sec_15.1.2.3 kV=0.48 kVA=13.92 irradiance=1 Pmpp=11.6 %cutin=0.1 %cutout=0.1
New PVSystem.PV_114 phases=3 conn = delta bus1=G2100FE2600_N292234_sec_16.1.2.3 kV=0.48 kVA=22.56 irradiance=1 Pmpp=18.8 %cutin=0.1 %cutout=0.1
New PVSystem.PV_115 phases=3 conn = delta bus1=G2100FG0000_N292260_sec_2.1.2.3 kV=0.48 kVA=12 irradiance=1 Pmpp=10 %cutin=0.1 %cutout=0.1
New PVSystem.PV_116 phases=1 bus1=G2100FI2200_N292320_sec_4.2 kV=0.24 kVA=10.8949 irradiance=1 Pmpp=9.0791 %cutin=0.1 %cutout=0.1
New PVSystem.PV_117 phases=1 bus1=G2100FL3500_N292410_sec_5.2 kV=0.24 kVA=4.08 irradiance=1 Pmpp=3.4 %cutin=0.1 %cutout=0.1
New PVSystem.PV_118 phases=3 conn = delta bus1=G2100FO5600_N292520_sec_1.1.2.3 kV=0.48 kVA=10.32 irradiance=1 Pmpp=8.6 %cutin=0.1 %cutout=0.1
New PVSystem.PV_119 phases=3 conn = delta bus1=G2100GJ2600_N292359_sec_1.1.2.3 kV=0.48 kVA=27.72 irradiance=1 Pmpp=23.1 %cutin=0.1 %cutout=0.1
New PVSystem.PV_120 phases=3 conn = delta bus1=G2100GM5300_N292446_sec_1.1.2.3 kV=0.48 kVA=25.68 irradiance=1 Pmpp=21.4 %cutin=0.1 %cutout=0.1
New PVSystem.PV_121 phases=1 bus1=G2100GN0400_N292471_sec_7.1 kV=0.24 kVA=2.28 irradiance=1 Pmpp=1.9 %cutin=0.1 %cutout=0.1
New PVSystem.PV_122 phases=1 bus1=G2100GN7300_N292464_sec_3.1 kV=0.24 kVA=1.68 irradiance=1 Pmpp=1.4 %cutin=0.1 %cutout=0.1
New PVSystem.PV_123 phases=3 conn = delta bus1=G2100HI8200_N292329_sec_1.1.2.3 kV=0.48 kVA=149.64 irradiance=1 Pmpp=124.7 %cutin=0.1 %cutout=0.1
New PVSystem.PV_124 phases=3 conn = delta bus1=G2100HI8200_N292329_sec_2.1.2.3 kV=0.48 kVA=32.4 irradiance=1 Pmpp=27 %cutin=0.1 %cutout=0.1
New PVSystem.PV_125 phases=1 bus1=G2100HM3200_N292420_sec_10.3 kV=0.24 kVA=0.36 irradiance=1 Pmpp=0.3 %cutin=0.1 %cutout=0.1
New PVSystem.PV_126 phases=1 bus1=G2100HM9900_N292433_sec_12.3 kV=0.24 kVA=0.84 irradiance=1 Pmpp=0.7 %cutin=0.1 %cutout=0.1
New PVSystem.PV_127 phases=1 bus1=G2100HM9900_N292433_sec_31.3 kV=0.24 kVA=3 irradiance=1 Pmpp=2.5 %cutin=0.1 %cutout=0.1
New PVSystem.PV_128 phases=1 bus1=G2100HN5600_N292453_sec_3.3 kV=0.24 kVA=3.36 irradiance=1 Pmpp=2.8 %cutin=0.1 %cutout=0.1
New PVSystem.PV_129 phases=1 bus1=G2100HN5600_N292453_sec_9.3 kV=0.24 kVA=1.56 irradiance=1 Pmpp=1.3 %cutin=0.1 %cutout=0.1
New PVSystem.PV_130 phases=1 bus1=G2100HN5600_N292453_sec_50.3 kV=0.24 kVA=0.72 irradiance=1 Pmpp=0.6 %cutin=0.1 %cutout=0.1
New PVSystem.PV_131 phases=1 bus1=G2100IL1000_N292412_sec_27.3 kV=0.24 kVA=3.72 irradiance=1 Pmpp=3.1 %cutin=0.1 %cutout=0.1
New PVSystem.PV_132 phases=1 bus1=G2100JP3100_N300601_sec_1.1 kV=0.24 kVA=5.1305 irradiance=1 Pmpp=4.2754 %cutin=0.1 %cutout=0.1
New PVSystem.PV_133 phases=1 bus1=G2100MO0000_N300567_sec_2.1 kV=0.24 kVA=12 irradiance=1 Pmpp=10 %cutin=0.1 %cutout=0.1
New PVSystem.PV_134 phases=1 bus1=G2100OJ3400_N300469_sec_1.2 kV=0.24 kVA=10.8147 irradiance=1 Pmpp=9.0123 %cutin=0.1 %cutout=0.1
New PVSystem.PV_135 phases=1 bus1=G2100RN9500_N312395_sec_10.3 kV=0.24 kVA=5.52 irradiance=1 Pmpp=4.6 %cutin=0.1 %cutout=0.1
New PVSystem.PV_136 phases=1 bus1=G2100SO3700_N312462_sec_4.3 kV=0.24 kVA=2.88 irradiance=1 Pmpp=2.4 %cutin=0.1 %cutout=0.1
New PVSystem.PV_137 phases=1 bus1=G2100TO1000_N312424_sec_8.2 kV=0.24 kVA=5.04 irradiance=1 Pmpp=4.2 %cutin=0.1 %cutout=0.1
New PVSystem.PV_138 phases=1 bus1=G2101BC8800_N283993_sec_1.2 kV=0.24 kVA=8.28 irradiance=1 Pmpp=6.9 %cutin=0.1 %cutout=0.1
New PVSystem.PV_139 phases=1 bus1=G2101CM7500_N284275_sec_2.1 kV=0.24 kVA=4.56 irradiance=1 Pmpp=3.8 %cutin=0.1 %cutout=0.1
New PVSystem.PV_140 phases=1 bus1=G2101DO4400_N284309_sec_3.1 kV=0.24 kVA=4.32 irradiance=1 Pmpp=3.6 %cutin=0.1 %cutout=0.1
New PVSystem.PV_141 phases=1 bus1=G2101FC8400_N292612_sec_3.2 kV=0.24 kVA=4.2 irradiance=1 Pmpp=3.5 %cutin=0.1 %cutout=0.1
New PVSystem.PV_142 phases=1 bus1=G2101FC8400_N292612_sec_11.2 kV=0.24 kVA=5.04 irradiance=1 Pmpp=4.2 %cutin=0.1 %cutout=0.1
New PVSystem.PV_143 phases=1 bus1=G2101FC9500_N292618_sec_11.1 kV=0.24 kVA=3.48 irradiance=1 Pmpp=2.9 %cutin=0.1 %cutout=0.1
New PVSystem.PV_144 phases=1 bus1=G2101FC9500_N292618_sec_16.1 kV=0.24 kVA=3 irradiance=1 Pmpp=2.5 %cutin=0.1 %cutout=0.1
New PVSystem.PV_145 phases=1 bus1=G2101GD5100_N292637_sec_12.1 kV=0.24 kVA=3 irradiance=1 Pmpp=2.5 %cutin=0.1 %cutout=0.1
New PVSystem.PV_146 phases=1 bus1=G2101GJ5200_N292778_sec_1.2 kV=0.24 kVA=6.72 irradiance=1 Pmpp=5.6 %cutin=0.1 %cutout=0.1
New PVSystem.PV_147 phases=1 bus1=G2101HB3500_N292585_sec_8.1 kV=0.24 kVA=8.9886 irradiance=1 Pmpp=7.4905 %cutin=0.1 %cutout=0.1
New PVSystem.PV_148 phases=1 bus1=G2101HB7500_N292585_sec_6.1 kV=0.24 kVA=6.12 irradiance=1 Pmpp=5.1 %cutin=0.1 %cutout=0.1
New PVSystem.PV_149 phases=1 bus1=G2101HD1100_N292645_sec_11.1 kV=0.24 kVA=3.84 irradiance=1 Pmpp=3.2 %cutin=0.1 %cutout=0.1
New PVSystem.PV_150 phases=1 bus1=G2101HD3500_N292652_sec_5.1 kV=0.24 kVA=3.6 irradiance=1 Pmpp=3 %cutin=0.1 %cutout=0.1
New PVSystem.PV_151 phases=1 bus1=G2101JE7500_N300801_sec_1.1 kV=0.24 kVA=8.16 irradiance=1 Pmpp=6.8 %cutin=0.1 %cutout=0.1
New PVSystem.PV_152 phases=1 bus1=G2101JF1200_N292702_sec_7.1 kV=0.24 kVA=6.72 irradiance=1 Pmpp=5.6 %cutin=0.1 %cutout=0.1
New PVSystem.PV_153 phases=1 bus1=G2101KA3900_N300679_sec_6.1 kV=0.24 kVA=3.72 irradiance=1 Pmpp=3.1 %cutin=0.1 %cutout=0.1
New PVSystem.PV_154 phases=1 bus1=G2101KA6200_N300623_sec_8.1 kV=0.24 kVA=3 irradiance=1 Pmpp=2.5 %cutin=0.1 %cutout=0.1
New PVSystem.PV_155 phases=1 bus1=G2101PC7200_N300740_sec_3.3 kV=0.24 kVA=3.84 irradiance=1 Pmpp=3.2 %cutin=0.1 %cutout=0.1
New PVSystem.PV_156 phases=1 bus1=G2000TL1200_N283789_sec_5.2 kV=0.24 kVA=4.2 irradiance=1 Pmpp=3.5 %cutin=0.1 %cutout=0.1
New PVSystem.PV_157 phases=1 bus1=G2000UJ3600_N283731_sec_6.2 kV=0.24 kVA=8.88 irradiance=1 Pmpp=7.4 %cutin=0.1 %cutout=0.1
New PVSystem.PV_158 phases=1 bus1=G2000VM6800_N283833_sec_1.2 kV=0.24 kVA=6.48 irradiance=1 Pmpp=5.4 %cutin=0.1 %cutout=0.1
New PVSystem.PV_159 phases=1 bus1=G2000YI1900_N283701_sec_1.1 kV=0.24 kVA=4.56 irradiance=1 Pmpp=3.8 %cutin=0.1 %cutout=0.1
New PVSystem.PV_160 phases=1 bus1=G2001QO2100_N274563_sec_5.2 kV=0.24 kVA=10.0509 irradiance=1 Pmpp=8.3758 %cutin=0.1 %cutout=0.1
New PVSystem.PV_161 phases=1 bus1=G2001TJ2100_N274442_sec_1.1 kV=0.24 kVA=7.44 irradiance=1 Pmpp=6.2 %cutin=0.1 %cutout=0.1
New PVSystem.PV_162 phases=1 bus1=G2001UB2100_N283965_sec_4.3 kV=0.24 kVA=5.4 irradiance=1 Pmpp=4.5 %cutin=0.1 %cutout=0.1
New PVSystem.PV_163 phases=1 bus1=G2001UD9000_N283927_sec_4.3 kV=0.24 kVA=4.44 irradiance=1 Pmpp=3.7 %cutin=0.1 %cutout=0.1
New PVSystem.PV_164 phases=1 bus1=G2001UJ6300_N284204_sec_2.2 kV=0.24 kVA=6.84 irradiance=1 Pmpp=5.7 %cutin=0.1 %cutout=0.1
New PVSystem.PV_165 phases=1 bus1=G2001VC8200_N283967_sec_7.3 kV=0.24 kVA=3.12 irradiance=1 Pmpp=2.6 %cutin=0.1 %cutout=0.1
New PVSystem.PV_166 phases=1 bus1=G2001VG6500_N284122_sec_1.3 kV=0.24 kVA=5.88 irradiance=1 Pmpp=4.9 %cutin=0.1 %cutout=0.1
New PVSystem.PV_167 phases=1 bus1=G2001WB3100_N283924_sec_6.3 kV=0.24 kVA=3.84 irradiance=1 Pmpp=3.2 %cutin=0.1 %cutout=0.1
New PVSystem.PV_168 phases=1 bus1=G2001WB8800_N283948_sec_1.3 kV=0.24 kVA=2.88 irradiance=1 Pmpp=2.4 %cutin=0.1 %cutout=0.1
New PVSystem.PV_169 phases=1 bus1=G2001XB6700_N283943_sec_3.3 kV=0.24 kVA=3.36 irradiance=1 Pmpp=2.8 %cutin=0.1 %cutout=0.1
New PVSystem.PV_170 phases=1 bus1=G2100AA0800_N283918_sec_1.3 kV=0.24 kVA=5.5659 irradiance=1 Pmpp=4.6382 %cutin=0.1 %cutout=0.1
New PVSystem.PV_171 phases=1 bus1=G2100AE4800_N283558_sec_4.3 kV=0.24 kVA=2.88 irradiance=1 Pmpp=2.4 %cutin=0.1 %cutout=0.1
New PVSystem.PV_172 phases=1 bus1=G2100AH6800_N283651_sec_6.3 kV=0.24 kVA=3.24 irradiance=1 Pmpp=2.7 %cutin=0.1 %cutout=0.1
New PVSystem.PV_173 phases=1 bus1=G2100AH8200_N283618_sec_9.3 kV=0.24 kVA=2.88 irradiance=1 Pmpp=2.4 %cutin=0.1 %cutout=0.1
New PVSystem.PV_174 phases=1 bus1=G2100AM2200_N283815_sec_1.1 kV=0.24 kVA=7.32 irradiance=1 Pmpp=6.1 %cutin=0.1 %cutout=0.1
New PVSystem.PV_175 phases=1 bus1=G2100AM9800_N283829_sec_1.1 kV=0.24 kVA=3.12 irradiance=1 Pmpp=2.6 %cutin=0.1 %cutout=0.1
New PVSystem.PV_176 phases=1 bus1=G2100AN8900_N283855_sec_2.3 kV=0.24 kVA=5.28 irradiance=1 Pmpp=4.4 %cutin=0.1 %cutout=0.1
New PVSystem.PV_177 phases=1 bus1=G2100BG5600_N283598_sec_3.3 kV=0.24 kVA=3.24 irradiance=1 Pmpp=2.7 %cutin=0.1 %cutout=0.1
New PVSystem.PV_178 phases=1 bus1=G2100CL9700_N283793_sec_3.1 kV=0.24 kVA=7.8 irradiance=1 Pmpp=6.5 %cutin=0.1 %cutout=0.1
New PVSystem.PV_179 phases=1 bus1=G2100DG1300_N283601_sec_1.3 kV=0.24 kVA=2.88 irradiance=1 Pmpp=2.4 %cutin=0.1 %cutout=0.1
New PVSystem.PV_180 phases=1 bus1=G2100DG3700_N283614_sec_1.3 kV=0.24 kVA=1.68 irradiance=1 Pmpp=1.4 %cutin=0.1 %cutout=0.1
New PVSystem.PV_181 phases=1 bus1=G2100DL9600_N1396879_sec_3.3 kV=0.24 kVA=1.92 irradiance=1 Pmpp=1.6 %cutin=0.1 %cutout=0.1
New PVSystem.PV_182 phases=1 bus1=G2100DN4800_N283861_sec_6.3 kV=0.24 kVA=1.32 irradiance=1 Pmpp=1.1 %cutin=0.1 %cutout=0.1
New PVSystem.PV_183 phases=1 bus1=G2100DN4800_N283861_sec_22.3 kV=0.24 kVA=2.16 irradiance=1 Pmpp=1.8 %cutin=0.1 %cutout=0.1
New PVSystem.PV_184 phases=1 bus1=G2100DN4800_N283861_sec_23.3 kV=0.24 kVA=3 irradiance=1 Pmpp=2.5 %cutin=0.1 %cutout=0.1
New PVSystem.PV_185 phases=1 bus1=G2100DN4800_N283861_sec_25.3 kV=0.24 kVA=2.6326 irradiance=1 Pmpp=2.1939 %cutin=0.1 %cutout=0.1
New PVSystem.PV_186 phases=1 bus1=G2100DN4800_N283861_sec_34.3 kV=0.24 kVA=1.56 irradiance=1 Pmpp=1.3 %cutin=0.1 %cutout=0.1
New PVSystem.PV_187 phases=1 bus1=G2100EO1300_N292510_sec_1.3 kV=0.24 kVA=1.44 irradiance=1 Pmpp=1.2 %cutin=0.1 %cutout=0.1
New PVSystem.PV_188 phases=3 conn = delta bus1=G2100FF2000_N292242_sec_2.1.2.3 kV=0.48 kVA=12 irradiance=1 Pmpp=10 %cutin=0.1 %cutout=0.1
New PVSystem.PV_189 phases=3 conn = delta bus1=G2100FG1700_N292304_sec_6.1.2.3 kV=0.48 kVA=18.24 irradiance=1 Pmpp=15.2 %cutin=0.1 %cutout=0.1
New PVSystem.PV_190 phases=3 conn = delta bus1=G2100FL1200_N292405_sec_1.1.2.3 kV=0.48 kVA=55.08 irradiance=1 Pmpp=45.9 %cutin=0.1 %cutout=0.1
New PVSystem.PV_191 phases=3 conn = delta bus1=G2100FL1200_N292405_sec_3.1.2.3 kV=0.48 kVA=3.24 irradiance=1 Pmpp=2.7 %cutin=0.1 %cutout=0.1
New PVSystem.PV_192 phases=1 bus1=G2100FO1700_N292522_sec_1.3 kV=0.24 kVA=2.64 irradiance=1 Pmpp=2.2 %cutin=0.1 %cutout=0.1
New PVSystem.PV_193 phases=3 conn = delta bus1=G2100GJ9500_N292365_sec_1.1.2.3 kV=0.48 kVA=115.1557 irradiance=1 Pmpp=95.9631 %cutin=0.1 %cutout=0.1
New PVSystem.PV_194 phases=1 bus1=G2100GM9700_N292423_sec_16.3 kV=0.24 kVA=4.8 irradiance=1 Pmpp=4 %cutin=0.1 %cutout=0.1
New PVSystem.PV_195 phases=1 bus1=G2100GN1400_N292471_sec_1.1 kV=0.24 kVA=4.8 irradiance=1 Pmpp=4 %cutin=0.1 %cutout=0.1
New PVSystem.PV_196 phases=1 bus1=G2100GN2400_N292466_sec_1.1 kV=0.24 kVA=3.72 irradiance=1 Pmpp=3.1 %cutin=0.1 %cutout=0.1
New PVSystem.PV_197 phases=3 conn = delta bus1=G2100GO5000_N292503_sec_1.1.2.3 kV=0.48 kVA=19.2 irradiance=1 Pmpp=16 %cutin=0.1 %cutout=0.1
New PVSystem.PV_198 phases=3 conn = delta bus1=G2100HI8200_N292329_sec_5.1.2.3 kV=0.48 kVA=132.6 irradiance=1 Pmpp=110.5 %cutin=0.1 %cutout=0.1
New PVSystem.PV_199 phases=1 bus1=G2100HN5600_N292453_sec_17.3 kV=0.24 kVA=0.72 irradiance=1 Pmpp=0.6 %cutin=0.1 %cutout=0.1
New PVSystem.PV_200 phases=1 bus1=G2100HN5600_N292453_sec_24.3 kV=0.24 kVA=4.2 irradiance=1 Pmpp=3.5 %cutin=0.1 %cutout=0.1
...
